Version 4
SHEET 1 1236 680
WIRE 208 -144 -64 -144
WIRE 512 -144 208 -144
WIRE 832 -144 512 -144
WIRE 1008 -144 832 -144
WIRE 208 -96 208 -144
WIRE 512 -80 512 -144
WIRE 832 -48 832 -144
WIRE 512 32 512 0
WIRE 784 32 512 32
WIRE 208 80 208 -16
WIRE 208 96 208 80
WIRE 512 96 512 32
WIRE 832 112 832 48
WIRE 112 176 16 176
WIRE 160 176 112 176
WIRE 640 176 560 176
WIRE 208 208 208 192
WIRE 640 224 640 176
WIRE 16 240 16 176
WIRE 208 272 208 208
WIRE 352 272 208 272
WIRE 512 272 512 192
WIRE 512 272 352 272
WIRE 832 272 832 192
WIRE 352 384 352 272
WIRE -64 464 -64 -144
WIRE 304 464 -64 464
WIRE 352 592 352 480
FLAG 352 592 0
FLAG 112 176 G1
FLAG 208 208 S1
FLAG 208 80 D1
FLAG 16 320 0
FLAG 640 304 0
FLAG 832 272 0
FLAG 1008 -64 0
SYMBOL nmos 160 96 R0
WINDOW 3 57 106 Left 2
SYMATTR Value BS/MMBF170
SYMATTR InstName M1
SYMATTR Prefix X
SYMBOL res 0 224 R0
SYMATTR InstName R2
SYMATTR Value 680k
SYMBOL nmos 560 96 M0
WINDOW 3 58 5 Left 2
SYMATTR Value BS/MMBF170
SYMATTR InstName M2
SYMATTR Prefix X
SYMBOL nmos 304 384 R0
WINDOW 3 72 70 Left 2
SYMATTR Value BS/MMBF170
SYMATTR InstName M3
SYMATTR Prefix X
SYMBOL res 624 208 R0
SYMATTR InstName R1
SYMATTR Value 680k
SYMBOL res 192 -112 R0
SYMATTR InstName R3
SYMATTR Value 10k
SYMBOL res 496 -96 R0
SYMATTR InstName R4
SYMATTR Value 6.8K
SYMBOL res 816 96 R0
SYMATTR InstName R5
SYMATTR Value 1000
SYMBOL Misc\\battery 1008 -160 R0
WINDOW 123 0 0 Left 0
WINDOW 39 0 0 Left 0
SYMATTR InstName V1
SYMATTR Value 12
SYMBOL nmos 784 -48 R0
SYMATTR InstName M4
SYMATTR Value BS/MMBF170
SYMATTR Prefix X
TEXT -112 -264 Left 2 !.inc "C:\\Users\\joa-m\\TP2_Electro1\\BS170.mod"
TEXT -424 32 Left 2 ;.dc V2 -10 10 0.1
TEXT -168 616 Left 2 !.tran 0 1s 0 1m
