Version 4
SHEET 1 1236 680
WIRE 512 -144 208 -144
WIRE 832 -144 512 -144
WIRE 1040 -144 832 -144
WIRE 512 -128 512 -144
WIRE 1040 -112 1040 -144
WIRE 832 -96 832 -144
WIRE 208 -16 208 -144
WIRE 512 -16 512 -48
WIRE 784 -16 512 -16
WIRE 1040 0 1040 -32
WIRE 1120 0 1040 0
WIRE 1040 32 1040 0
WIRE 1120 48 1120 0
WIRE 160 64 64 64
WIRE 624 64 560 64
WIRE 832 112 832 0
WIRE 64 144 64 64
WIRE 624 144 624 64
WIRE 208 160 208 80
WIRE 352 160 208 160
WIRE 512 160 512 80
WIRE 512 160 352 160
WIRE 352 192 352 160
WIRE 304 272 256 272
WIRE 832 272 832 192
WIRE 256 304 256 272
WIRE 352 320 352 288
WIRE 352 416 352 400
WIRE 1040 416 1040 112
WIRE 1040 416 352 416
FLAG 64 144 0
FLAG 624 144 0
FLAG 832 272 0
FLAG 1120 48 0
FLAG 256 304 0
SYMBOL nmos 160 -16 R0
WINDOW 3 57 106 Left 2
SYMATTR Value BS/MMBF170
SYMATTR InstName M1
SYMATTR Prefix X
SYMBOL nmos 560 -16 M0
WINDOW 3 58 5 Left 2
SYMATTR Value BS/MMBF170
SYMATTR InstName M2
SYMATTR Prefix X
SYMBOL nmos 304 192 R0
WINDOW 3 72 70 Left 2
SYMATTR Value BS/MMBF170
SYMATTR InstName M3
SYMATTR Prefix X
SYMBOL res 496 -144 R0
SYMATTR InstName R4
SYMATTR Value 6.8K
SYMBOL res 816 96 R0
SYMATTR InstName R5
SYMATTR Value 1000
SYMBOL Misc\\battery 1040 -128 R0
WINDOW 123 0 0 Left 0
WINDOW 39 0 0 Left 0
SYMATTR InstName V1
SYMATTR Value 12
SYMBOL nmos 784 -96 R0
SYMATTR InstName M4
SYMATTR Value BS/MMBF170
SYMATTR Prefix X
SYMBOL res 336 304 R0
SYMATTR InstName R3
SYMATTR Value 10k
SYMBOL Misc\\battery 1040 16 R0
WINDOW 123 0 0 Left 0
WINDOW 39 0 0 Left 0
SYMATTR InstName V2
SYMATTR Value 12
TEXT -112 -264 Left 2 !.inc "C:\\Users\\joa-m\\TP2_Electro1\\BS170.mod"
TEXT 56 -208 Left 2 ;.dc V2 -10 10 0.1
TEXT 480 -224 Left 2 !.tran 0 5ms 0 1m
